DU1
  -OEChem-09232216373D

 66 69  0     0  0  0  0  0  0999 V2000
    2.3940   -3.4550   -1.2070 O   0  0  0  0  0  0  0  0  0  0  0  0
    3.0650   -2.5580   -0.7350 C   0  0  0  0  0  0  0  0  0  0  0  0
    2.7700   -1.2820   -1.0500 N   0  0  0  0  0  0  0  0  0  0  0  0
    3.5230   -0.2450   -0.5240 C   0  0  0  0  0  0  0  0  0  0  0  0
    4.5780   -0.5470    0.3280 C   0  0  0  0  0  0  0  0  0  0  0  0
    5.1380    0.6610    0.6920 N   0  0  0  0  0  0  0  0  0  0  0  0
    4.4310    1.6260    0.0720 C   0  0  0  0  0  0  0  0  0  0  0  0
    4.6970    3.1050    0.1870 C   0  0  0  0  0  0  0  0  0  0  0  0
    5.7720    3.5100   -0.8240 C   0  0  0  0  0  0  0  0  0  0  0  0
    6.0410    5.0120   -0.7080 C   0  0  0  0  0  0  0  0  0  0  0  0
    6.5240    5.3350    0.7080 C   0  0  0  0  0  0  0  0  0  0  0  0
    5.4490    4.9310    1.7180 C   0  0  0  0  0  0  0  0  0  0  0  0
    5.1790    3.4290    1.6020 C   0  0  0  0  0  0  0  0  0  0  0  0
    3.4790    1.0850   -0.6440 N   0  0  0  0  0  0  0  0  0  0  0  0
    4.8520   -1.8980    0.6320 C   0  0  0  0  0  0  0  0  0  0  0  0
    5.7680   -2.1880    1.3800 O   0  0  0  0  0  0  0  0  0  0  0  0
    4.0800   -2.8640    0.0920 N   0  0  0  0  0  0  0  0  0  0  0  0
    4.3580   -4.2680    0.4030 C   0  0  0  0  0  0  0  0  0  0  0  0
    3.5670   -4.6810    1.6460 C   0  0  0  0  0  0  0  0  0  0  0  0
    3.8570   -6.1480    1.9710 C   0  0  0  0  0  0  0  0  0  0  0  0
    1.6530   -0.9910   -1.9520 C   0  0  0  0  0  0  0  0  0  0  0  0
    0.3710   -0.8170   -1.1350 C   0  0  0  0  0  0  0  0  0  0  0  0
   -0.7960   -0.5120   -2.0760 C   0  0  0  0  0  0  0  0  0  0  0  0
   -2.0240   -0.3460   -1.2930 N   0  0  0  0  0  0  0  0  0  0  0  0
   -3.1870   -0.0700   -1.9160 C   0  0  0  0  0  0  0  0  0  0  0  0
   -3.2180    0.0410   -3.1260 O   0  0  0  0  0  0  0  0  0  0  0  0
   -4.4260    0.0990   -1.1260 C   0  0  0  0  0  0  0  0  0  0  0  0
   -4.3920   -0.0220    0.2640 C   0  0  0  0  0  0  0  0  0  0  0  0
   -5.5520    0.1370    0.9950 C   0  0  0  0  0  0  0  0  0  0  0  0
   -6.7460    0.4140    0.3530 C   0  0  0  0  0  0  0  0  0  0  0  0
   -8.2220    0.6150    1.2940 S   0  0  0  0  0  0  0  0  0  0  0  0
   -8.2160   -0.4140    2.2730 O   0  0  0  0  0  0  0  0  0  0  0  0
   -8.3060    1.9960    1.6170 O   0  0  0  0  0  0  0  0  0  0  0  0
   -6.7850    0.5350   -1.0250 C   0  0  0  0  0  0  0  0  0  0  0  0
   -5.6320    0.3840   -1.7670 C   0  0  0  0  0  0  0  0  0  0  0  0
    5.8970    0.7910    1.2830 H   0  0  0  0  0  0  0  0  0  0  0  0
    3.7790    3.6560   -0.0190 H   0  0  0  0  0  0  0  0  0  0  0  0
    6.6900    2.9590   -0.6180 H   0  0  0  0  0  0  0  0  0  0  0  0
    5.4280    3.2790   -1.8320 H   0  0  0  0  0  0  0  0  0  0  0  0
    6.8070    5.3000   -1.4280 H   0  0  0  0  0  0  0  0  0  0  0  0
    5.1230    5.5620   -0.9140 H   0  0  0  0  0  0  0  0  0  0  0  0
    7.4420    4.7850    0.9140 H   0  0  0  0  0  0  0  0  0  0  0  0
    6.7150    6.4050    0.7900 H   0  0  0  0  0  0  0  0  0  0  0  0
    5.7920    5.1610    2.7260 H   0  0  0  0  0  0  0  0  0  0  0  0
    4.5310    5.4810    1.5120 H   0  0  0  0  0  0  0  0  0  0  0  0
    4.4130    3.1400    2.3220 H   0  0  0  0  0  0  0  0  0  0  0  0
    6.0970    2.8780    1.8080 H   0  0  0  0  0  0  0  0  0  0  0  0
    4.0630   -4.8930   -0.4400 H   0  0  0  0  0  0  0  0  0  0  0  0
    5.4240   -4.3940    0.5930 H   0  0  0  0  0  0  0  0  0  0  0  0
    3.8620   -4.0570    2.4890 H   0  0  0  0  0  0  0  0  0  0  0  0
    2.5010   -4.5560    1.4560 H   0  0  0  0  0  0  0  0  0  0  0  0
    3.2940   -6.4420    2.8560 H   0  0  0  0  0  0  0  0  0  0  0  0
    3.5620   -6.7720    1.1280 H   0  0  0  0  0  0  0  0  0  0  0  0
    4.9230   -6.2740    2.1600 H   0  0  0  0  0  0  0  0  0  0  0  0
    1.8600   -0.0740   -2.5030 H   0  0  0  0  0  0  0  0  0  0  0  0
    1.5270   -1.8160   -2.6530 H   0  0  0  0  0  0  0  0  0  0  0  0
    0.1640   -1.7340   -0.5830 H   0  0  0  0  0  0  0  0  0  0  0  0
    0.4970    0.0080   -0.4330 H   0  0  0  0  0  0  0  0  0  0  0  0
   -0.5890    0.4050   -2.6270 H   0  0  0  0  0  0  0  0  0  0  0  0
   -0.9220   -1.3370   -2.7770 H   0  0  0  0  0  0  0  0  0  0  0  0
   -1.9990   -0.4340   -0.3280 H   0  0  0  0  0  0  0  0  0  0  0  0
   -3.4610   -0.2390    0.7670 H   0  0  0  0  0  0  0  0  0  0  0  0
   -5.5280    0.0440    2.0710 H   0  0  0  0  0  0  0  0  0  0  0  0
   -7.7200    0.7520   -1.5200 H   0  0  0  0  0  0  0  0  0  0  0  0
   -5.6630    0.4830   -2.8420 H   0  0  0  0  0  0  0  0  0  0  0  0
   -9.4590    0.3020    0.3120 F   0  0  0  0  0  0  0  0  0  0  0  0
 15 16  2  0  0  0  0
 19 20  1  0  0  0  0
 18 19  1  0  0  0  0
 17 18  1  0  0  0  0
 15 17  1  0  0  0  0
  5 15  1  0  0  0  0
  2 17  1  0  0  0  0
 12 13  1  0  0  0  0
  8 13  1  0  0  0  0
 11 12  1  0  0  0  0
  5  6  1  0  0  0  0
  6  7  1  0  0  0  0
  4  5  2  0  0  0  0
  1  2  2  0  0  0  0
  2  3  1  0  0  0  0
  7  8  1  0  0  0  0
  7 14  2  0  0  0  0
  3  4  1  0  0  0  0
  4 14  1  0  0  0  0
  8  9  1  0  0  0  0
  3 21  1  0  0  0  0
 10 11  1  0  0  0  0
  9 10  1  0  0  0  0
 21 22  1  0  0  0  0
 22 23  1  0  0  0  0
 23 24  1  0  0  0  0
 24 25  1  0  0  0  0
 25 26  2  0  0  0  0
 25 27  1  0  0  0  0
 27 28  2  0  0  0  0
 28 29  1  0  0  0  0
 27 35  1  0  0  0  0
 29 30  2  0  0  0  0
 34 35  2  0  0  0  0
 30 34  1  0  0  0  0
 30 31  1  0  0  0  0
 31 32  2  0  0  0  0
 31 33  2  0  0  0  0
  6 36  1  0  0  0  0
  8 37  1  0  0  0  0
  9 38  1  0  0  0  0
  9 39  1  0  0  0  0
 10 40  1  0  0  0  0
 10 41  1  0  0  0  0
 11 42  1  0  0  0  0
 11 43  1  0  0  0  0
 12 44  1  0  0  0  0
 12 45  1  0  0  0  0
 13 46  1  0  0  0  0
 13 47  1  0  0  0  0
 18 48  1  0  0  0  0
 18 49  1  0  0  0  0
 19 50  1  0  0  0  0
 19 51  1  0  0  0  0
 20 52  1  0  0  0  0
 20 53  1  0  0  0  0
 20 54  1  0  0  0  0
 21 55  1  0  0  0  0
 21 56  1  0  0  0  0
 22 57  1  0  0  0  0
 22 58  1  0  0  0  0
 23 59  1  0  0  0  0
 23 60  1  0  0  0  0
 24 61  1  0  0  0  0
 28 62  1  0  0  0  0
 29 63  1  0  0  0  0
 34 64  1  0  0  0  0
 35 65  1  0  0  0  0
 31 66  1  0  0  0  0
M  END
> <OPENEYE_ISO_SMILES>
CCCn1c(=O)c2c(nc([nH]2)C3CCCCC3)n(c1=O)CCCNC(=O)c4ccc(cc4)S(=O)(=O)F

> <OPENEYE_INCHI>
InChI=1S/C24H30FN5O5S/c1-2-14-30-23(32)19-21(28-20(27-19)16-7-4-3-5-8-16)29(24(30)33)15-6-13-26-22(31)17-9-11-18(12-10-17)36(25,34)35/h9-12,16H,2-8,13-15H2,1H3,(H,26,31)(H,27,28)

> <OPENEYE_INCHIKEY>
KAJVJPLKXGLLDA-UHFFFAOYSA-N

> <FORMULA>
C24H30FN5O5S

$$$$
